Version 4
SHEET 1 880 680
WIRE -112 0 -176 0
WIRE 128 0 -112 0
WIRE 464 0 128 0
WIRE 128 16 128 0
WIRE 464 16 464 0
WIRE 64 64 32 64
WIRE 560 64 528 64
WIRE -112 96 -112 0
WIRE 32 128 32 64
WIRE 32 128 16 128
WIRE 128 128 128 112
WIRE 192 128 128 128
WIRE 464 128 464 112
WIRE 464 128 400 128
WIRE 560 128 560 64
WIRE 576 128 560 128
WIRE 128 144 128 128
WIRE 464 144 464 128
WIRE 32 192 32 128
WIRE 64 192 32 192
WIRE 560 192 560 128
WIRE 560 192 528 192
WIRE -112 256 -112 160
WIRE -112 256 -176 256
WIRE 128 256 128 240
WIRE 128 256 -112 256
WIRE 464 256 464 240
WIRE 464 256 128 256
FLAG 400 128 DC2
IOPIN 400 128 Out
FLAG 192 128 DC1
IOPIN 192 128 Out
FLAG 576 128 B2
IOPIN 576 128 In
FLAG 16 128 B1
IOPIN 16 128 In
FLAG -176 256 DCgnd
IOPIN -176 256 BiDir
FLAG -176 0 Dcsupply
IOPIN -176 0 BiDir
SYMBOL npn 64 16 R0
SYMATTR InstName Q1
SYMBOL npn 528 16 M0
SYMATTR InstName Q2
SYMBOL pnp 64 240 M180
SYMATTR InstName Q3
SYMBOL pnp 528 240 R180
SYMATTR InstName Q4
SYMBOL cap -128 96 R0
SYMATTR InstName C1
SYMATTR Value 47µF
TEXT 168 -72 Center 2 ;EDL DC motor Driver
