Version 4
SHEET 1 880 680
WIRE -352 -144 -480 -144
WIRE -240 -144 -352 -144
WIRE -32 -144 -240 -144
WIRE 224 -144 -32 -144
WIRE -480 -96 -480 -144
WIRE -352 -96 -352 -144
WIRE -480 16 -480 -16
WIRE -352 16 -352 -32
WIRE 224 80 224 -144
WIRE -240 112 -240 -144
WIRE -240 112 -256 112
WIRE -112 112 -240 112
WIRE 32 112 -32 112
WIRE 96 112 32 112
WIRE 368 112 336 112
WIRE 416 112 368 112
WIRE 592 144 528 144
WIRE -240 192 -256 192
WIRE -112 192 -240 192
WIRE 32 192 -32 192
WIRE 96 192 32 192
WIRE 368 192 336 192
WIRE 384 192 368 192
WIRE 384 208 384 192
WIRE 416 208 384 208
WIRE 592 208 528 208
WIRE -240 400 -240 192
WIRE -32 400 -240 400
WIRE 208 400 208 224
WIRE 208 400 -32 400
WIRE -32 416 -32 400
FLAG 592 144 omega
IOPIN 592 144 Out
FLAG 592 208 enc
IOPIN 592 208 Out
FLAG -480 16 0
FLAG -32 416 0
FLAG -352 16 0
FLAG -32 -144 +10V_Dcsupply
FLAG 368 112 dc1
FLAG 368 192 dc2
FLAG -256 192 o2
IOPIN -256 192 In
FLAG -256 112 o1
IOPIN -256 112 In
FLAG 32 112 b1
FLAG 32 192 b2
SYMBOL DC_motor_driver 208 160 R0
SYMATTR InstName X1
SYMBOL res -16 96 R90
WINDOW 0 -1 84 VBottom 2
WINDOW 3 -27 27 VTop 2
SYMATTR InstName Rb1
SYMATTR Value {Rb}
SYMBOL res -16 176 R90
WINDOW 0 68 80 VBottom 2
WINDOW 3 37 15 VTop 2
SYMATTR InstName Rb2
SYMATTR Value {Rb}
SYMBOL cap -368 -96 R0
SYMATTR InstName C1
SYMATTR Value 47µF
SYMBOL DC_motor_model 464 160 R0
SYMATTR InstName X2
SYMBOL voltage -480 -112 R0
SYMATTR InstName V_10V
SYMATTR Value 10
TEXT -512 248 Left 2 !.param Rb = 750
TEXT -512 288 Left 2 !.tran 250ms
TEXT -32 -248 Left 2 ;EDL DC Motor and Driver Circuit
TEXT 232 280 Left 2 ;Clockwise:\nCounter-Clockwise:\nStop:
TEXT 456 280 Left 2 ;O1 = +10V, O2 = GND\nO1 = GND, O2 = +10V\nO1 = GND, O2 = GND
