Version 4
SHEET 1 1592 1060
WIRE 144 -32 64 -32
WIRE 224 -32 144 -32
WIRE 304 -32 224 -32
WIRE 512 -32 304 -32
WIRE 704 -32 512 -32
WIRE 848 -32 704 -32
WIRE 1136 -32 848 -32
WIRE 1216 -32 1136 -32
WIRE 64 16 64 -32
WIRE 144 32 144 -32
WIRE 224 32 224 -32
WIRE 304 32 304 -32
WIRE 704 64 704 -32
WIRE 848 64 848 -32
WIRE 64 128 64 96
WIRE 144 128 144 96
WIRE 224 128 224 96
WIRE 304 128 304 96
WIRE 704 224 704 144
WIRE 848 224 848 128
WIRE 848 224 704 224
WIRE 1216 224 1216 -32
WIRE 176 272 96 272
WIRE 224 272 176 272
WIRE 96 288 96 272
WIRE 368 304 336 304
WIRE 400 304 368 304
WIRE 864 304 816 304
WIRE 1136 304 1136 -32
WIRE 1136 304 1088 304
WIRE 816 336 816 304
WIRE 224 368 96 368
WIRE 432 368 336 368
WIRE 512 368 432 368
WIRE 624 368 576 368
WIRE 704 368 704 224
WIRE 704 368 624 368
WIRE 864 368 704 368
WIRE 1216 368 1216 304
WIRE 1216 368 1088 368
WIRE 96 384 96 368
WIRE 864 432 704 432
WIRE 1216 432 1216 368
WIRE 1216 432 1088 432
WIRE 816 496 800 496
WIRE 864 496 816 496
WIRE 1136 496 1088 496
WIRE 1216 496 1216 432
WIRE 704 640 704 432
WIRE 880 640 704 640
WIRE 864 688 800 688
WIRE 944 688 864 688
WIRE 800 704 800 688
WIRE 944 784 944 688
WIRE 800 800 800 784
WIRE 912 800 800 800
WIRE 1088 816 976 816
WIRE 1184 816 1088 816
WIRE 1344 816 1264 816
WIRE 1456 816 1344 816
WIRE 704 832 704 640
WIRE 912 832 704 832
WIRE 800 864 800 800
WIRE 1344 864 1344 816
WIRE 800 960 800 944
WIRE 944 960 944 848
WIRE 1344 960 1344 928
FLAG 64 128 0
FLAG 144 128 0
FLAG 224 128 0
FLAG 304 128 0
FLAG 816 336 0
FLAG 1216 560 0
FLAG 1136 560 0
FLAG 1344 960 0
FLAG 96 384 0
FLAG 512 -32 VCC
FLAG 816 496 VCC
FLAG 880 640 PWM
IOPIN 880 640 Out
FLAG 1456 816 speed
IOPIN 1456 816 Out
FLAG 368 304 w
FLAG 432 368 enc
FLAG 624 368 trig
FLAG 176 272 DC
FLAG 800 960 0
FLAG 944 960 0
FLAG 864 688 VCC
FLAG 1088 816 CompOut
SYMBOL voltage 64 0 R0
SYMATTR InstName VCC
SYMATTR Value 5
SYMBOL cap 128 32 R0
SYMATTR InstName C7
SYMATTR Value 47µF
SYMBOL cap 208 32 R0
SYMATTR InstName C6
SYMATTR Value 1µF
SYMBOL cap 288 32 R0
SYMATTR InstName C5
SYMATTR Value 1µF
SYMBOL res 688 48 R0
SYMATTR InstName R1
SYMATTR Value 4k
SYMBOL diode 864 128 R180
WINDOW 0 24 64 Left 2
WINDOW 3 -96 23 Left 2
SYMATTR InstName D1
SYMATTR Value 1N4148
SYMBOL LM555 976 400 R0
SYMATTR InstName U1
SYMBOL res 1200 208 R0
SYMATTR InstName R2
SYMATTR Value 15k
SYMBOL cap 1120 496 R0
WINDOW 3 -65 50 Left 2
SYMATTR Value 0.1µF
SYMATTR InstName C4
SYMBOL res 1168 832 R270
WINDOW 0 32 56 VTop 2
WINDOW 3 0 56 VBottom 2
SYMATTR InstName R3
SYMATTR Value 18k
SYMBOL cap 1328 864 R0
SYMATTR InstName C3
SYMATTR Value 0.1µF
SYMBOL cap 512 384 R270
WINDOW 0 32 32 VTop 2
WINDOW 3 0 32 VBottom 2
SYMATTR InstName C1
SYMATTR Value 1nF
SYMBOL voltage 96 272 R0
WINDOW 3 38 66 Left 2
WINDOW 123 0 0 Left 2
WINDOW 39 0 0 Left 2
SYMATTR Value 10V
SYMATTR InstName VDC
SYMBOL cap 1200 496 R0
WINDOW 0 37 7 Left 2
WINDOW 3 33 49 Left 2
SYMATTR InstName C2
SYMATTR Value 42nF
SYMBOL DC_motor_model 272 320 R0
SYMATTR InstName X1
SYMBOL TLC3702 944 816 R0
SYMATTR InstName U2
SYMBOL res 784 688 R0
SYMATTR InstName R4
SYMATTR Value 33K
SYMBOL res 784 848 R0
SYMATTR InstName R5
SYMATTR Value 33K
TEXT 472 496 Left 2 !.tran 100ms
